opendss_networks/LV13_58bus/lines.dss
new line.L_39 lineCode=uglv_240al_xlpe/nyl/pvc_ug_4w_bundled bus1=B2049 bus2=B1585 length=0.0504515713920 units=km phases=4
new line.L_44 lineCode=uglv_240al_xlpe/nyl/pvc_ug_4w_bundled bus1=B3160 bus2=B1863 length=0.00455273159708 units=km phases=4
new line.L_183 lineCode=ugsc_16cu_xlpe/nyl/pvc_ug_4w_bundled bus1=B1073 bus2=B2237 length=0.0613986620014 units=km phases=4
new line.L_425 lineCode=ughv_400al_triplex_ug_4w_bundled bus1=B1519 bus2=B362 length=0.000800000000000 units=km phases=4
new line.L_435 lineCode=ugsc_16cu_xlpe/nyl/pvc_ug_4w_bundled bus1=B2943 bus2=B867 length=0.0365282466242 units=km phases=4
new line.L_449 lineCode=uglv_240al_xlpe/nyl/pvc_ug_4w_bundled bus1=B207 bus2=B2049 length=0.00583617798069 units=km phases=4
new line.L_494 lineCode=uglv_240al_xlpe/nyl/pvc_ug_4w_bundled bus1=B1587 bus2=B559 length=0.138705415812 units=km phases=4
new line.L_520 lineCode=ugsc_16cu_xlpe/nyl/pvc_ug_4w_bundled bus1=B2720 bus2=B559 length=0.0302564827799 units=km phases=4
new line.L_595 lineCode=ugsc_16cu_xlpe/nyl/pvc_ug_4w_bundled bus1=B719 bus2=B987 length=0.0402085148692 units=km phases=4
new line.L_633 lineCode=uglv_240al_xlpe/nyl/pvc_ug_4w_bundled bus1=B2947 bus2=B2237 length=0.0212017175047 units=km phases=4
new line.L_1088 lineCode=ugsc_16cu_xlpe/nyl/pvc_ug_4w_bundled bus1=B2616 bus2=B559 length=0.00799900044815 units=km phases=4
new line.L_1322 lineCode=ugsc_16cu_xlpe/nyl/pvc_ug_4w_bundled bus1=B2404 bus2=B2947 length=0.00682519051790 units=km phases=4
new line.L_1330 lineCode=ughv_400al_triplex_ug_4w_bundled bus1=B963 bus2=B1057 length=6.69200664901e-05 units=km phases=4
new line.L_1499 lineCode=uglv_240al_xlpe/nyl/pvc_ug_4w_bundled bus1=B1585 bus2=B2947 length=0.0637665820566 units=km phases=4
new line.L_1558 lineCode=ugsc_16cu_xlpe/nyl/pvc_ug_4w_bundled bus1=B1995 bus2=B2947 length=0.0184909075777 units=km phases=4
new line.L_1635 lineCode=uglv_240al_xlpe/nyl/pvc_ug_4w_bundled bus1=B2418 bus2=B3109 length=0.0224821711267 units=km phases=4
new line.L_1726 lineCode=uglv_240al_xlpe/nyl/pvc_ug_4w_bundled bus1=B3109 bus2=B719 length=0.0588111883529 units=km phases=4
new line.L_1835 lineCode=ugsc_16cu_xlpe/nyl/pvc_ug_4w_bundled bus1=B251 bus2=B3109 length=0.00807174123272 units=km phases=4
new line.L_1879 lineCode=ughv_400al_triplex_ug_4w_bundled bus1=B3285 bus2=B1564 length=0.000320889194331 units=km phases=4
new line.L_1911 lineCode=ughv_400al_triplex_ug_4w_bundled bus1=B1080 bus2=B2165 length=0.000255748683198 units=km phases=4
new line.L_2021 lineCode=ugsc_16cu_xlpe/nyl/pvc_ug_4w_bundled bus1=B3109 bus2=B2535 length=0.00657586591186 units=km phases=4
new line.L_2155 lineCode=ugsc_16cu_xlpe/nyl/pvc_ug_4w_bundled bus1=B132 bus2=B1585 length=0.00649478546117 units=km phases=4
new line.L_2165 lineCode=ughv_400al_triplex_ug_4w_bundled bus1=B3398 bus2=B3285 length=0.000557891713958 units=km phases=4
new line.L_2250 lineCode=ughv_400al_triplex_ug_4w_bundled bus1=B3285 bus2=B434 length=0.000206301915236 units=km phases=4
new line.L_2364 lineCode=ugsc_16cu_xlpe/nyl/pvc_ug_4w_bundled bus1=B816 bus2=B1251 length=0.0154261609186 units=km phases=4
new line.L_2425 lineCode=ughv_400al_triplex_ug_4w_bundled bus1=B2836 bus2=B3285 length=0.000255748683551 units=km phases=4
new line.L_2583 lineCode=uglv_240al_xlpe/nyl/pvc_ug_4w_bundled bus1=B2959 bus2=B3160 length=0.00340916229292 units=km phases=4
new line.L_2652 lineCode=ughv_400al_triplex_ug_4w_bundled bus1=B136 bus2=B1323 length=6.69200664901e-05 units=km phases=4
new line.L_2729 lineCode=uglv_240al_xlpe/nyl/pvc_ug_4w_bundled bus1=B867 bus2=B1867 length=0.0211716994984 units=km phases=4
new line.L_2735 lineCode=ughv_400al_triplex_ug_4w_bundled bus1=B3285 bus2=B2966 length=0.000320889192415 units=km phases=4
new line.L_2776 lineCode=ugsc_16cu_xlpe/nyl/pvc_ug_4w_bundled bus1=B250 bus2=B1251 length=0.0154293824455 units=km phases=4
new line.L_2958 lineCode=ugsc_16cu_xlpe/nyl/pvc_ug_4w_bundled bus1=B2778 bus2=B1585 length=0.0243080779968 units=km phases=4
new line.L_2992 lineCode=ugsc_16cu_xlpe/nyl/pvc_ug_4w_bundled bus1=B719 bus2=B1159 length=0.00620783150535 units=km phases=4
new line.L_3110 lineCode=uglv_240al_xlpe/nyl/pvc_ug_4w_bundled bus1=B559 bus2=B1251 length=0.0212065693671 units=km phases=4
new line.L_3128 lineCode=uglv_185cu_xlpe/nyl/pvc_ug_4w_bundled bus1=B1867 bus2=B362 length=0.00191387197198 units=km phases=4
new line.L_3252 lineCode=ugsc_16cu_xlpe/nyl/pvc_ug_4w_bundled bus1=B867 bus2=B3395 length=0.00719167796369 units=km phases=4
new line.L_3315 lineCode=ughv_400al_triplex_ug_4w_bundled bus1=B1080 bus2=B683 length=0.000245783239739 units=km phases=4
new line.L_3546 lineCode=ughv_400al_triplex_ug_4w_bundled bus1=B3285 bus2=B1260 length=0.000542180977484 units=km phases=4
new line.L_3603 lineCode=ughv_400al_triplex_ug_4w_bundled bus1=B660 bus2=B520 length=6.69200664901e-05 units=km phases=4
new line.L_3711 lineCode=uglv_240al_xlpe/nyl/pvc_ug_4w_bundled bus1=B1251 bus2=B867 length=0.0698752129788 units=km phases=4
new line.L_3876 lineCode=ugsc_16cu_xlpe/nyl/pvc_ug_4w_bundled bus1=B1207 bus2=B559 length=0.0279443399089 units=km phases=4
new line.L_3977 lineCode=ughv_400al_triplex_ug_4w_bundled bus1=B2416 bus2=B870 length=6.69200664901e-05 units=km phases=4
new line.L_4368 lineCode=ugsc_16cu_xlpe/nyl/pvc_ug_4w_bundled bus1=B1033 bus2=B1650 length=0.0209003081504 units=km phases=4
new line.L_4484 lineCode=uglv_240al_xlpe/nyl/pvc_ug_4w_bundled bus1=B3098 bus2=B1863 length=0.00450927901282 units=km phases=4
new line.L_4488 lineCode=ugsc_16cu_xlpe/nyl/pvc_ug_4w_bundled bus1=B760 bus2=B2237 length=0.0153878441710 units=km phases=4
new line.L_4593 lineCode=ughv_400al_triplex_ug_4w_bundled bus1=B3115 bus2=B1585 length=0.000800000000000 units=km phases=4
new line.L_4674 lineCode=ugsc_16cu_xlpe/nyl/pvc_ug_4w_bundled bus1=B1463 bus2=B1867 length=0.00542506573781 units=km phases=4
